Version 4
SHEET 1 2844 680
WIRE 784 -16 624 -16
WIRE 928 -16 864 -16
WIRE 1504 0 1344 0
WIRE 1648 0 1584 0
WIRE 416 112 384 112
WIRE 624 112 624 -16
WIRE 624 112 496 112
WIRE 688 112 624 112
WIRE 928 128 928 -16
WIRE 928 128 752 128
WIRE 1136 128 1104 128
WIRE 1344 128 1344 0
WIRE 1344 128 1216 128
WIRE 1408 128 1344 128
WIRE 688 144 576 144
WIRE 1648 144 1648 0
WIRE 1648 144 1472 144
WIRE 1408 160 1296 160
WIRE 1648 192 1648 144
WIRE 576 240 576 144
WIRE 1296 256 1296 160
WIRE 16 272 16 256
WIRE 80 272 16 272
WIRE 144 272 144 256
WIRE 144 272 80 272
WIRE 384 288 384 112
WIRE 656 288 384 288
WIRE 752 288 656 288
WIRE 928 288 928 128
WIRE 928 288 816 288
WIRE 80 304 80 272
WIRE 1104 304 1104 128
WIRE 1376 304 1104 304
WIRE 1472 304 1376 304
WIRE 1648 304 1648 272
WIRE 1648 304 1536 304
WIRE 656 384 656 288
WIRE 928 384 928 288
WIRE 1376 400 1376 304
WIRE 1648 400 1648 304
WIRE 656 512 656 464
WIRE 928 512 928 464
WIRE 1376 528 1376 480
WIRE 1648 528 1648 480
FLAG 80 304 0
FLAG 144 176 Vpos
FLAG 720 96 Vpos
FLAG 16 176 Vneg
FLAG 720 160 Vneg
FLAG 928 512 0
FLAG 656 512 0
FLAG 576 240 0
FLAG 1440 112 Vpos
FLAG 1440 176 Vneg
FLAG 1648 528 0
FLAG 1376 528 0
FLAG 1296 256 0
SYMBOL res 880 -32 R90
WINDOW 0 0 56 VBottom 2
WINDOW 3 32 56 VTop 2
SYMATTR InstName R2
SYMATTR Value 20E3
SYMBOL res 512 96 R90
WINDOW 0 0 56 VBottom 2
WINDOW 3 32 56 VTop 2
SYMATTR InstName R1
SYMATTR Value 1000
SYMBOL voltage 144 160 R0
SYMATTR InstName V1
SYMATTR Value 5
SYMBOL voltage 16 272 R180
WINDOW 0 24 96 Left 2
WINDOW 3 24 16 Left 2
WINDOW 123 24 -12 Left 2
WINDOW 39 0 0 Left 0
SYMATTR InstName V2
SYMATTR Value 5
SYMATTR Value2 AC 0.1
SYMBOL Opamps\\LT1215 720 64 R0
SYMATTR InstName U1
SYMBOL cap 816 272 R90
WINDOW 0 0 32 VBottom 2
WINDOW 3 32 32 VTop 2
SYMATTR InstName C1
SYMATTR Value 4.8324E-07
SYMBOL ind 912 368 R0
SYMATTR InstName L2
SYMATTR Value 8.0000E-06
SYMBOL ind 640 368 R0
SYMATTR InstName L1
SYMATTR Value 2.0000E-06
SYMBOL res 1600 -16 R90
WINDOW 0 0 56 VBottom 2
WINDOW 3 32 56 VTop 2
SYMATTR InstName R6
SYMATTR Value 20E3
SYMBOL res 1232 112 R90
WINDOW 0 0 56 VBottom 2
WINDOW 3 32 56 VTop 2
SYMATTR InstName R7
SYMATTR Value 1000
SYMBOL Opamps\\LT1215 1440 80 R0
SYMATTR InstName U3
SYMBOL cap 1536 288 R90
WINDOW 0 0 32 VBottom 2
WINDOW 3 32 32 VTop 2
SYMATTR InstName C3
SYMATTR Value 4.8324E-07
SYMBOL ind 1632 384 R0
SYMATTR InstName L5
SYMATTR Value 8.0000E-06
SYMBOL ind 1360 384 R0
SYMATTR InstName L6
SYMATTR Value 2.0000E-06
SYMBOL res 1632 176 R0
SYMATTR InstName R8
SYMATTR Value 20
SYMBOL Opamps\\AD8032 256 -128 R0
SYMATTR InstName U5
TEXT 264 336 Left 2 !.tran 0 2ms 0 0.1ms startup uic
TEXT 352 376 Left 2 !.lib opamp.sub
TEXT 328 496 Left 2 !;.ac dec 200 1 10E6
TEXT 312 416 Left 2 !.options plotwinsize=0
TEXT 336 448 Left 2 !.options numdgt = 7
