Version 4
SHEET 1 880 680
WIRE -48 -48 -160 -48
WIRE 192 -48 32 -48
WIRE 192 48 192 -48
WIRE 192 48 80 48
WIRE -320 144 -416 144
WIRE -160 144 -160 -48
WIRE -160 144 -240 144
WIRE -96 144 -160 144
WIRE 16 144 16 48
WIRE 16 144 -16 144
WIRE 80 144 16 144
WIRE 192 160 192 48
WIRE 192 160 144 160
WIRE 224 160 192 160
WIRE -416 176 -416 144
WIRE 80 176 32 176
WIRE -160 192 -160 144
WIRE -704 272 -704 240
WIRE -640 272 -704 272
WIRE -576 272 -576 240
WIRE -576 272 -640 272
WIRE -416 288 -416 256
WIRE -160 288 -160 256
WIRE 32 288 32 176
WIRE -640 304 -640 272
FLAG -704 160 Pos_v
FLAG -576 160 neg_v
FLAG -640 304 0
FLAG 32 288 0
FLAG -160 288 0
FLAG -416 288 0
FLAG 112 128 Pos_v
FLAG 112 192 neg_v
FLAG 224 160 Vo
FLAG -416 144 Vin
SYMBOL voltage -704 144 R0
WINDOW 123 0 0 Left 0
WINDOW 39 0 0 Left 0
SYMATTR InstName V2
SYMATTR Value 5
SYMBOL voltage -576 256 R180
WINDOW 0 24 96 Left 2
WINDOW 3 24 16 Left 2
SYMATTR InstName V3
SYMATTR Value 5
SYMBOL Opamps\\UniversalOpamp2 112 160 R0
SYMATTR InstName U1
SYMATTR Value2 Avol=1Meg GBW=1Meg Slew=10Meg
SYMBOL res 48 -64 R90
WINDOW 0 0 56 VBottom 2
WINDOW 3 32 56 VTop 2
SYMATTR InstName R3
SYMATTR Value 19058.844
SYMBOL res 0 128 R90
WINDOW 0 0 56 VBottom 2
WINDOW 3 32 56 VTop 2
SYMATTR InstName R2
SYMATTR Value 6859.945
SYMBOL res -224 128 R90
WINDOW 0 0 56 VBottom 2
WINDOW 3 32 56 VTop 2
SYMATTR InstName R1
SYMATTR Value 10717.576
SYMBOL cap -144 256 R180
WINDOW 0 24 56 Left 2
WINDOW 3 24 8 Left 2
SYMATTR InstName C1
SYMATTR Value 3.69988E-10
SYMBOL cap 16 64 R270
WINDOW 0 32 32 VTop 2
WINDOW 3 0 32 VBottom 2
SYMATTR InstName C2
SYMATTR Value 100E-12
SYMBOL voltage -416 160 R0
WINDOW 123 24 124 Left 2
WINDOW 39 0 0 Left 0
SYMATTR Value2 AC 1
SYMATTR InstName V1
SYMATTR Value ""
TEXT -464 344 Left 2 !.ac dec 50 10K 10E6
